**$ENCRYPTED_LIB
**$INTERFACE
* PSpice Model Editor - Version 16.2.0
*$
* LP5912_3P3
*****************************************************************************
* (C) Copyright 2016 Texas Instruments Incorporated. All rights reserved.
*****************************************************************************
** This model is designed as an aid for customers of Texas Instruments.
** TI and its licensors and suppliers make no warranties, either expressed
** or implied, with respect to this model, including the warranties of
** merchantability or fitness for a particular purpose. The model is
** provided solely on an "as is" basis. The entire risk as to its quality
** and performance is with the customer.
*****************************************************************************
*
** Released by: WEBENCH Design Center, Texas Instruments Inc.
* Part: LP5912_3P3
* Date: 15JAN2016
* Model Type: Transient
* Simulator: PSPICE
* Simulator Version: 16.2.0.p001
* EVM Order Number: 
* EVM Users Guide:  SNVU484-August 2015 
* Datasheet: SNVSA77-SEPTEMBER 2015
*
* Model Version: Final 1.00
*
*****************************************************************************
*
* Updates:
*
* Final 1.00
* Release to Web
*
*****************************************************************************
* Model Usage Notes:
*
* 1. The following features have been modeled
*      a. Start-up time = time from EN assertion
*      b. PSSR
*      c. Enable
*      d. PGOOD
*      
* 2. Temperature effects,quiescent/ground pin currents are not been modeled.
*
*****************************************************************************
.SUBCKT LP5912_3P3_TRANS IN EN NC OUT PG PAD GND 
$CDNENCSTART
eee8c5c7a2bc4b01f045f303678664e7916da0bae22e8cb0bba041dd67c69ce448ea70148a9ac1670c8926c1ac5057c8ccfcd77bf87ca9dc208e9f9356bf60f8
2bfdfbe661a0882d10a5fcbe7a8691e38fd6a48a854be40babfbbd366e3c015eda6f68ef393ad193d94ec0d6afe59154a286ab8191b33007c27a0fe47ba19b0a
4651b4c215cbe2b1a4c6d548bbf1c2df8dabdda61dd53300b188ec39c84eda3ee336a3db98d053977bf3ed3d89b90508515ecb598be096002f5629aedc8144f9
8767f397bff4c3a731bbfa71d5efb6fe3868963439e44b768dabdda61dd53300b188ec39c84eda3ee336a3db98d053977bf3ed3d89b9050843d8907034dc4c50
0dea85bdd2f6170510a5fcbe7a8691e36e7105e925644a00de8c2d1754611d0b0bc2a76e983385220a8c9aa88363f34e42d592010626c1ddaaa7eccf627d8fae
23ee73d6065f364126c880f485e2ca34c6346086074a39c2bda6cd13f4cf15dfdd7ec5227c66436ed4dc5df250bf3f4f0fdac9c2e4570c430489b1033aa93f45
c9df73872fc604505141f95a167e875cb8368eb63c4c192b1dbaaf9d294d8e9748da025e697215719c748d84173ac4359fc44f8bc68697899ce86e9ceadc2a24
1fcbc249eb947153305eaeda4ae775d7c195100027f00a3fba105b629766a2e0fa5c51fb57f672088dabdda61dd53300b188ec39c84eda3e02beddbbaefd0051
1154b5c62790e472957673035b26e32b952ed4332d4fb886ce5ec34e6f8ad1ca154df430d4f084bd99d1756b58eb1fa76525f0b1c9e8f0bfdae669cbc4229771
ddf438644b24df84c99475e5d74aa41bb3092113ae59ff75a12f0b18411f2012743be96dc93a8ddcb85c4b8bf84fd89625224be6afa1022e89f5da0aec595c25
7f1b4562e5aa78414c9c9ab3c8df25bb1fa9130b3c216f5e40bb8b5c0215a9c913b45034ddea25f5c2d55ad77cb9dc6a39ac2bfaea01ab6b2fdc7cd6095e87b8
abc05a84349f7fe5fe5bea499a8e9fee59411efb6a62f722ecbb72aaaf5fcafee2888ec0711c16b31c805e0c37824e959645e0dd9984026e2c6a312f9e1fb7cc
c6ada2f6665016df663733dbd667a43fb28267c4afc28e811fa9130b3c216f5e40bb8b5c0215a9c913b45034ddea25f5c2d55ad77cb9dc6a0a7713b0cb80f7c5
0be1bd08545f4ec3706b807646b8037186672e2dbb4e601bc5d9e3678fccb1f5246f665bedad4c9d9fc30e97396144e68eafa26679fb5dead9e5d26f69c030eb
0a40497471b1851d706b807646b8037110fe20894a82e47899b87aceb23e86979bd52e24aaba9e8d7538df4596c8873b246f665bedad4c9dd5c8a66f0375c12f
311fb123761f1dd195dac5b681d7ec9874fe5c8f0df8437a9b38b3f5b61f6b0f84e2167aae4a05755e57e33f11e15f564b8f3662c626ded82c6a312f9e1fb7cc
e9f419af62bfe95eb585b96681e0ca9ba21192fade6c61218492e52ca990713774bd84a1f90ee88cdd6200a649fb305b94754a223418ccdb2be4545d89eca38c
470be60fecfba293dd7ec5227c66436ed4dc5df250bf3f4f0fdac9c2e4570c43437fc5583cbc2c0adc0c21deba7c7b7afe1b9165ea245cec38a83ba1c5d543ab
e9f419af62bfe95ec12e63f53fc8b6c7080dbdc2111b05acc90ee3888cb6836bce5ec34e6f8ad1ca143d07475832cac491eae8c95ebba509ad10a7f8687c51a2
d7534371b91731a88e6947734ef792b9dd7ec5227c66436ed4dc5df250bf3f4f0fdac9c2e4570c43437fc5583cbc2c0adc0c21deba7c7b7af4c67ac0e0f42a4c
470dd7f55c073fcd55136b92d0559ec499ace89f635c45919fc30e97396144e68eafa26679fb5deab1bd0f39bfa025b4c4499ba5e5d111bc5c5413feb66ce368
10f459d39ee6f8ae706b807646b80371a4f10b3120454571f2810f0bed6a6bb98e3e500cf345ff614ae73f9d6dc60a8e97198c1734d7491a9968c22eb8ebaf47
e9f419af62bfe95ef6a2b547dc976ba0b83b505ff8816a14763d55224b2c24e81ae2c47eafc92f13e197352476fc39b0d64b114424994829b9ebe824e87b0f2d
bcdeb94753712f55aea778ddd8d14e0782b00f5a671ff4ac6bcdb12baab92079af28cbdee366a6ba3219595ebf0b3ac500f1f0e61afdabf528cff4b45678ffe9
1e36f10390632b7b706b807646b80371989ff71a450f2d4f10323e3e4f03d8455a3bd16bf5766b7522c2ca6031933b14abdc18ad19c6370052dba193271012d0
bee3b1535c1d5d6b246f665bedad4c9d9fc30e97396144e68eafa26679fb5deab1bd0f39bfa025b4c4499ba5e5d111bca9b565fd4245e13aae8ce3995700380e
6001ce11cd9cdc99706b807646b8037144e9b84edbf54790fd0035e6993521bc13877178319b1a7fb46187a49cad3acc82b00f5a671ff4ac257f35672822646b
22cc75479b3d980a706b807646b8037180a93b86ccc5ef96b81e4c4d969f1dd2ca3bf768e25b6b29ac6a06391c26b0c6d76c198cda145e6a208e9f9356bf60f8
e9f419af62bfe95ebf230db17611f82f080dbdc2111b05ac19375d27cae2536ace5ec34e6f8ad1ca572639fe66bde82e03924768072665a4e717456fe15188e4
d050d004eb12ec3dc06dcdeb9755b77af2f7185cfde06b349fc30e97396144e68eafa26679fb5deab1bd0f39bfa025b4c4499ba5e5d111bc5c5413feb66ce368
c52e484e61b5760ecf5e9389f2a48e3c0bc2a76e983385220a8c9aa88363f34e42d592010626c1ddb04bacb1c96516ac37af81747cb799921737f0d8c3969f97
1ac3d64a7ec42565706b807646b8037138fd1d9ce3aa49f9972866ebd0853a7bc7b3dcf4d0ca38a3d949e18fcc8144779848e05e4b059739fb38a21cd827b9d1
a8fd19f33527d4f260a188d940e604c1b3092113ae59ff75a12f0b18411f2012743be96dc93a8ddcb85c4b8bf84fd89625224be6afa1022e89f5da0aec595c25
cdaa385411811e27bfd81d659a09e4b32637e9cac2aa5cea2cecad1ebf804c4b2473511ee33aa3b90bc2a76e983385220a8c9aa88363f34e14484d7645405856
8e36af18aaaae5522688e0dfc494de0fd9ef882687c21d05a0cfd83204c88dcec46531d953115e56598fa6e3488c237a84e1115a17a3e2277119c12127e7fb94
82d2e7992b7a58af706b807646b80371449cd4ec787d349e36bed99312d678f665820eff5d1d9103b0608e88c5f43ea473837741f37face488bd83521ee3fbb5
75963efd3ee34e16b0320154828380201fa9130b3c216f5e40bb8b5c0215a9c913b45034ddea25f5c2d55ad77cb9dc6a39ac2bfaea01ab6b2fdc7cd6095e87b8
bbf0a766f49a242c2637e9cac2aa5cea2cecad1ebf804c4b2473511ee33aa3b90bc2a76e983385220a8c9aa88363f34e42d592010626c1ddaaa7eccf627d8fae
a3f11315c1ba40a1706b807646b8037144e9b84edbf547907b56373bcdd7443a13877178319b1a7f81db13c7b5cdb0a682b00f5a671ff4ac257f35672822646b
54653036f112a7e5706b807646b80371989ff71a450f2d4f43ff7de80bac908e0b2915792e5120cd0afc85f6633d60b03ecfb4feaf868f209968c22eb8ebaf47
8df0563ff6b12bcb706b807646b803710a3848678b5d4eeeb7f168e55d02c3c2f56e4fd08338439d0db7744b07a3f1ecd52b4f24dc4dd33a9918d69ce2c3964d
6400e88c0aa4cd28706b807646b803716ae83c8245d0daca2c3769442a88626b150c5044da1e517a246f665bedad4c9d9fc30e97396144e653ec85e4d4d4f9df
f28257b2a3730294706b807646b80371a847f3fb487c186c2e10b6f40aa50ec7d607087dcfdaea29dd7ec5227c66436ed4dc5df250bf3f4f0911a9d7ca4a8009
a5d158a0fc11634f706b807646b8037180a93b86ccc5ef96dcdb6b3481be0e893c0a87748563a1088dabdda61dd53300b188ec39c84eda3e02beddbbaefd0051
6dcc2999c2dfe559706b807646b80371989ff71a450f2d4faccc1413efbd7221320519e3e0587008dd7ec5227c66436ed4dc5df250bf3f4f0911a9d7ca4a8009
e9f419af62bfe95ebc27f931268b4061080dbdc2111b05ac3c28d4a307c87004ce5ec34e6f8ad1cac13ffc8b6ae5cb2e4c21dace8c0b77c7c5edc8eda06110ea
5d078000650a8fa590aa170c46c17509c6faddf134b0622f6fc5e1e787686945cf5e9389f2a48e3c0bc2a76e983385220a8c9aa88363f34e14484d7645405856
385bb969478bc1fd7509c136893a3e2e2bb7973957ca2d7625e2a2cc6a8eba8e6b574213c15e8d896ca3c968c31ce36f470be60fecfba2932c6a312f9e1fb7cc
a3ce589fda26bc39706b807646b80371989ff71a450f2d4f92db5467decb5e577eb1547bdfb9fe93a147194f3a3bf6c03a7afb3043696a919ce86e9ceadc2a24
69ff18044fae7c89706b807646b803712a6b3ce54a7c1865150a1d6731f530eccddf1b68ca30546a82b00f5a671ff4ac6bcdb12baab9207924d6474cc7312069
f9b0e0bab8595c63706b807646b803717dcd3f16f2f4a72c38127b5ab2d6467584f5edea8c2bb2e0ee35566a532d14ce50f66ddcbd9f4827d63a56bfb0f973cc
fa5c51fb57f672088dabdda61dd53300b188ec39c84eda3ee336a3db98d053977bf3ed3d89b90508515ecb598be09600ace4862978b2839f56bbe5121adb1fc8
e9f419af62bfe95ecc0121b5e20e2076080dbdc2111b05acde91212396735d2ace5ec34e6f8ad1caf93f7b40a8e2bd3108c0f85e1bde808a4cf705d5d584b10c
0a74212461f65cb976d50cd002ed4408b083fc8a07e940786954020319aab50f1fa9130b3c216f5e40bb8b5c0215a9c913b45034ddea25f5874782b41fcb4649
bc8ee2299b22080376d50cd002ed4408d87846bcf182c2736954020319aab50f99ace89f635c45919fc30e97396144e68eafa26679fb5dead9e5d26f69c030eb
cefa4323af94c7c2706b807646b803716ae83c8245d0daca12119074fce173dd478a87bc5b8e6cf91fa9130b3c216f5e40bb8b5c0215a9c92069295c500d9feb
02dac6cba784505e706b807646b8037180a93b86ccc5ef961fd0fe96cad713b8ec673e334d6e7ccdef66f270e2da7d190db7744b07a3f1ec82a17baf75a7c319
b67df0d3ab862a12706b807646b80371a847f3fb487c186c7546fb5c8c4298ecd607087dcfdaea29dd7ec5227c66436ed4dc5df250bf3f4f0911a9d7ca4a8009
857620ce20ef86cb26c880f485e2ca340d5a0bfbaa1078f3ad7195ab2367f0f43ecfb4feaf868f2082b00f5a671ff4ac6bcdb12baab9207924d6474cc7312069
617df87f684e4830737baa5b50665ed1501128bc6c9f1801faca85d0862a74fbec64b19fbda5237dafbf74984c578d2f7eaa6a336f9158db3b6bce4c3ed12cf1
6d2aa86b77a26c95cf5e9389f2a48e3c0bc2a76e983385220a8c9aa88363f34e42d592010626c1ddb04bacb1c96516ac37af81747cb799921737f0d8c3969f97
7aff1ed17501806226c880f485e2ca3423c0cbbd4ab5539ead7195ab2367f0f43ecfb4feaf868f2082b00f5a671ff4ac6bcdb12baab9207924d6474cc7312069
3bdfb3bcf8540f577cb6d75c9dd6f5dc38fd1d9ce3aa49f9ea59b2cc9c9a360cdd7ec5227c66436ed4dc5df250bf3f4f0fdac9c2e4570c430489b1033aa93f45
04f5acd939422ec02fbfcc2b872ff9460a3e68a0b89e0909749d13634498f34bc9322890ded6647b0634ce288438fa0cc2ae2c72e327b3691bb9e5bd068dac05
b1cfb33a71c1795db3092113ae59ff75a12f0b18411f2012743be96dc93a8ddcb85c4b8bf84fd89625224be6afa1022eb79740262f5b854bb6ea48e7489c8b0e
48a94d11d238250f3b976e9cf670ef0f93353968738ffe176fa6b23909d6905c3e3d8ea29cc1f3d32455ecfdd3bf0b738dabdda61dd53300636d440ed682b13b
e644fc3843e7ff1b15f60e4ce62d5ce42f9beea174cb54aed616d6c9a4360561b34dd29120624a2982b00f5a671ff4ac6bcdb12baab9207924d6474cc7312069
5637fcfd860683a9f06c08b3bb5fde7f7c6be9f20897f782f65be89123242d2dbc9ba1249b27d252ef66f270e2da7d190db7744b07a3f1ec82a17baf75a7c319
8d21fa536185c85c957673035b26e32bf4ddca81698b0db38492e52ca990713747769f4b83600c3c07a8b1424f6ced7e380dd06d32e820763d7d870321a966e1
a7c951a8bd0935af43483c4fec2f331299ace89f635c45919fc30e97396144e68eafa26679fb5deab1bd0f39bfa025b4c4499ba5e5d111bc5c5413feb66ce368
3b59b36ad64eb5861b335ff666912215ae51f65e84dca8a41e8d99a34d90bf6ebc9ba1249b27d252ef66f270e2da7d190db7744b07a3f1ec82a17baf75a7c319
a3f576b848cd34f910a5fcbe7a8691e345b08db43681c03bc30feabe9d1408e61fa9130b3c216f5e40bb8b5c0215a9c913b45034ddea25f5874782b41fcb4649
065d26286aaf2f12f45310c19b6b8ee5039bdac173a075e68968730c4deed3cf9645e0dd9984026edd7ec5227c66436ed4dc5df250bf3f4f0911a9d7ca4a8009
98b5f0d56fa745866d0fde0d209c2d9d77a09c71b79fae6db6a1b93b735ea2ce2daa8e1c8383f976b3092113ae59ff75a12f0b18411f201271ed448049d0440a
93d3808648446fd760c210771409cb2ee0b5dbf27fe7bf8f28012d945d685fb41a5fda8e06c24aed8dabdda61dd53300b188ec39c84eda3e02beddbbaefd0051
3d438685e8d81df08ce6c355cecd73173a9f2b15e1549f82d2cba97a6fa780a058b7694ea940380fe943da19d70d353f87f2f7184a204b9a208e9f9356bf60f8
5c2e262d493b312fcb3707fed16c224b3906c1d5e465f4a1da91f89291855a7d8c0fab00abef36a9b3092113ae59ff75a12f0b18411f201271ed448049d0440a
c858d814c56a2bccc83805c2174809e8ac72d3840963783faf95c97a168d66e23e3d8ea29cc1f3d3dfc36bd19db04b778dabdda61dd53300636d440ed682b13b
b0eb42ca922cce592fbfcc2b872ff946ced8cc84c05228b1749d13634498f34b68c3b9926e0df71c616ab2d91dc2c95df925663d8f4df250abf46a058af6beab
dd26735e1fd81cc5daf4f2cef17671ed0db7744b07a3f1ecd52b4f24dc4dd33abbd30d2e906fdfe06aa08fffaf95fe6d27acb00761d23596cf619f7ff2fb7ed7
9afa1f10a7f457ea15f60e4ce62d5ce4268ffed78a3448457725dab847e703f63d1e66e16b42006a246f665bedad4c9d9fc30e97396144e653ec85e4d4d4f9df
ddf70eae3b592905a60fd3951de4fe94e0b5dbf27fe7bf8f1d71511a1041bc206e5bccf5a63dfdb6b3092113ae59ff75a12f0b18411f201271ed448049d0440a
4036fe3bb1fccadc1b335ff666912215564c9c6a3946c7e96d0fde0d209c2d9d7673b5f538075369fa5c51fb57f672088dabdda61dd53300636d440ed682b13b
e0bee0f3fadd672460c210771409cb2ee0b5dbf27fe7bf8f1f2fb368fccc6be125d40f775a64a0940cafcb7cfe652d94661c6c5a6c3f664f9ce86e9ceadc2a24
8f10d309634521e5f45310c19b6b8ee5c016648d0cf427ce2333a016061f78baef66f270e2da7d190db7744b07a3f1ecd52b4f24dc4dd33a9918d69ce2c3964d
1333f3c86417d3f22fbfcc2b872ff94669fc9af8bacf7ee7749d13634498f34bc9322890ded6647b1e8d99a34d90bf6ec3b4e0bf7758f072491c3f072e96755f
6aaea979d71d06737be460824f48d3c19fc30e97396144e68eafa26679fb5deab1bd0f39bfa025b4c4499ba5e5d111bca9b565fd4245e13aae8ce3995700380e
bd0e883a9b79652f932b62427017c4afaf30dbac83d7e82e97066312fd128483aea778ddd8d14e0782b00f5a671ff4ac6bcdb12baab9207924d6474cc7312069
705d459f50f7a08c15f60e4ce62d5ce434565abdcbd0ff558f71e7553e8063983ecfb4feaf868f2082b00f5a671ff4ac6bcdb12baab9207924d6474cc7312069
a16523cb4c60088015f60e4ce62d5ce49c565a4547a92b1fb85fd6b8e587c63f977aa12e8ea1263dee5db9a6d342ef749fc30e97396144e653ec85e4d4d4f9df
394197bedeb77a7115f60e4ce62d5ce4e8874122f09b761cd616d6c9a4360561e1dccbcbafa30549661c6c5a6c3f664f0bc2a76e98338522b87c79acf0c33af7
b052355e65d40bda3b976e9cf670ef0f7bd8e260f57b3ee9d616d6c9a4360561b6a1b93b735ea2cecaef7a9554f5eba0b3092113ae59ff75ad781c071b31bd27
b90e0c5fe970b38760c210771409cb2e9bb0d004119ec15e777d4715d3c53dd141d49fca179af79dbaee13068f3f98a989347593aca29c2941afa6f56cb94681
904e90e8e5b2fbfdf45310c19b6b8ee5ccfc82a9316bed11d37750f413b01fab3a7afb3043696a910bc2a76e983385220a8c9aa88363f34e14484d7645405856
615a28c46d72374094fbbbfac28a5c5c164c9e232793a5b063d9d49533be6e3add7ec5227c66436ed4dc5df250bf3f4f0fdac9c2e4570c430489b1033aa93f45
62748d827ca277c7706b807646b803718841ed8504261f6f853e236eb38858c8d3b99b01fef3c644590c9cf0591fe219486b117ebcedfbbf3fc8faff822d845f
aea778ddd8d14e0782b00f5a671ff4ac6bcdb12baab92079af28cbdee366a6ba3219595ebf0b3ac500f1f0e61afdabf5187bd4c240985d452e8c4709719b85b0
c0ff0c48b49f7f33dd8a92673b2faf0a8909ce3896765cb93f834bfc67abf1814ebedf1affe729ad3a7afb3043696a910bc2a76e98338522b87c79acf0c33af7
717cdf892ff6b6ffd811871cc3622e4a53e7b7d7fd04c6591fa9130b3c216f5e40bb8b5c0215a9c913b45034ddea25f5c2d55ad77cb9dc6a0a7713b0cb80f7c5
2cfd781695004e3841287e75b069f851cca7ef0968b3749e3ee7f0b59b3d1826ccd351a5f7058a84afae4a14e7ef41e51dcc536a3b3081ba1eefd1d4ffc31bc1
b592322d6113cc99742eca451c91b3b40bc2a76e983385220a8c9aa88363f34e42d592010626c1ddb04bacb1c96516ac37af81747cb799921737f0d8c3969f97
f96e326736b49b59714329f1566e4bcffa22e2049acbfa443f4fbb688d9a0da7fad05bec8c6ede95e2dd6cb161a90baf04ba2d7115e22eb871cc75843b9cf566
947d41c848bb182be5c8d503a297ee869fc30e97396144e68eafa26679fb5deab1bd0f39bfa025b4c4499ba5e5d111bca9b565fd4245e13aae8ce3995700380e
$CDNENCFINISH
.ENDS LP5912_3P3_TRANS
*$
.subckt LP5912_3P3_F1 1 2 3 4  
$CDNENCSTART
eee8c5c7a2bc4b01f045f303678664e7916da0bae22e8cb0bba041dd67c69ce448ea70148a9ac1670c8926c1ac5057c8ccfcd77bf87ca9dc208e9f9356bf60f8
ae601cf82fbefc0c31820e631d1d1d74872d6da6e74e75ee1fa9130b3c216f5e40bb8b5c0215a9c913b45034ddea25f5c2d55ad77cb9dc6a0a7713b0cb80f7c5
969b68e4450fa8bd6f31076d2b37e96bec1dbf48f1a07bfb8dabdda61dd53300b188ec39c84eda3ee336a3db98d053977bf3ed3d89b9050843d8907034dc4c50
$CDNENCFINISH
.ends LP5912_3P3_F1
*$
.subckt V_INT_U1_S1 1 2 3 4  
$CDNENCSTART
eee8c5c7a2bc4b01f045f303678664e7916da0bae22e8cb0bba041dd67c69ce448ea70148a9ac1670c8926c1ac5057c8ccfcd77bf87ca9dc208e9f9356bf60f8
a6272e415a8818e5706b807646b803714f11897f11707f100488378bb4107acddd7ec5227c66436ed4dc5df250bf3f4f0fdac9c2e4570c430489b1033aa93f45
56bfde993bf8e92e706b807646b803717c5a1603e29c51e4b3092113ae59ff75a12f0b18411f2012743be96dc93a8ddcb85c4b8bf84fd89677ec61e81ce03390
1e7e75f62a07f7b1bbcb463bf6330e442ca7a85d9088e1828da9d0385456e17b2c2fad5448bb05af74d49e5aaf31185296061cfa22879e0b32f5027d39548b9a
c0cefdde8805a485b3092113ae59ff75a12f0b18411f2012743be96dc93a8ddcb85c4b8bf84fd89625224be6afa1022eb79740262f5b854bb6ea48e7489c8b0e
$CDNENCFINISH
.ends V_INT_U1_S1
*$
.subckt LP5912_3P3_S1 1 2 3 4  
$CDNENCSTART
eee8c5c7a2bc4b01f045f303678664e7916da0bae22e8cb0bba041dd67c69ce448ea70148a9ac1670c8926c1ac5057c8ccfcd77bf87ca9dc208e9f9356bf60f8
44f117741689d59131820e631d1d1d749e35700c7913e9391fa9130b3c216f5e40bb8b5c0215a9c913b45034ddea25f5c2d55ad77cb9dc6a0a7713b0cb80f7c5
3c76beba9b808c126f31076d2b37e96b3f1030bbca8576c38dabdda61dd53300b188ec39c84eda3ee336a3db98d053977bf3ed3d89b9050843d8907034dc4c50
1e7e75f62a07f7b1bbcb463bf6330e447b3ba2fd65dbf9050ffb76e2ddf4497b2596d65fe0df484d088a7a198d4d42bbbedd4f0e0429e49f495fccae137fe4fe
$CDNENCFINISH
.ends LP5912_3P3_S1
*$
.subckt LP5912_3P3_S3 1 2 3 4  
$CDNENCSTART
eee8c5c7a2bc4b01f045f303678664e7916da0bae22e8cb0bba041dd67c69ce448ea70148a9ac1670c8926c1ac5057c8ccfcd77bf87ca9dc208e9f9356bf60f8
49437a5c2c000e5531820e631d1d1d7451c16968e1146dc51fa9130b3c216f5e40bb8b5c0215a9c913b45034ddea25f5c2d55ad77cb9dc6a0a7713b0cb80f7c5
196545b3a77859896f31076d2b37e96b3f1030bbca8576c38dabdda61dd53300b188ec39c84eda3ee336a3db98d053977bf3ed3d89b9050843d8907034dc4c50
1e7e75f62a07f7b1bbcb463bf6330e449fca2d09a1602b870ffb76e2ddf4497b6472b082e22f867135c3e3057952aba3d9f33c6fa00122b25065ec6d2c8c5479
3a4d6653b4140a888dabdda61dd53300b188ec39c84eda3ee336a3db98d053977bf3ed3d89b90508515ecb598be09600ace4862978b2839f56bbe5121adb1fc8
$CDNENCFINISH
.ends LP5912_3P3_S3
*$
.subckt LP5912_3P3_H1 1 2 3 4  
$CDNENCSTART
eee8c5c7a2bc4b01f045f303678664e7916da0bae22e8cb0bba041dd67c69ce448ea70148a9ac1670c8926c1ac5057c8ccfcd77bf87ca9dc208e9f9356bf60f8
2abee8045ea05af631820e631d1d1d745631fdfe31f523f91fa9130b3c216f5e40bb8b5c0215a9c913b45034ddea25f5c2d55ad77cb9dc6a0a7713b0cb80f7c5
32ee4cbc53dd07ef6f31076d2b37e96bec1dbf48f1a07bfb8dabdda61dd53300b188ec39c84eda3ee336a3db98d053977bf3ed3d89b9050843d8907034dc4c50
$CDNENCFINISH
.ends LP5912_3P3_H1
*$
.subckt LP5912_3P3_S4 1 2 3 4  
$CDNENCSTART
eee8c5c7a2bc4b01f045f303678664e7916da0bae22e8cb0bba041dd67c69ce448ea70148a9ac1670c8926c1ac5057c8ccfcd77bf87ca9dc208e9f9356bf60f8
cca5ca7cd3bb954631820e631d1d1d743397604f987b60be1fa9130b3c216f5e40bb8b5c0215a9c913b45034ddea25f5c2d55ad77cb9dc6a0a7713b0cb80f7c5
c89815736fd06a736f31076d2b37e96b3f1030bbca8576c38dabdda61dd53300b188ec39c84eda3ee336a3db98d053977bf3ed3d89b9050843d8907034dc4c50
1e7e75f62a07f7b1bbcb463bf6330e44d3c3547c91af769e0ffb76e2ddf4497b9a253dd2675d031f8f182a59499ce6404561ed7e88206b61b7ff9d1e2616f60c
$CDNENCFINISH
.ends LP5912_3P3_S4
*$
.subckt LP5912_3P3_S2 1 2 3 4  
$CDNENCSTART
eee8c5c7a2bc4b01f045f303678664e7916da0bae22e8cb0bba041dd67c69ce448ea70148a9ac1670c8926c1ac5057c8ccfcd77bf87ca9dc208e9f9356bf60f8
c21144fd15b2c61331820e631d1d1d7423f284e2e346bfb81fa9130b3c216f5e40bb8b5c0215a9c913b45034ddea25f5c2d55ad77cb9dc6a0a7713b0cb80f7c5
e07b7a6acd4bf43c6f31076d2b37e96b3f1030bbca8576c38dabdda61dd53300b188ec39c84eda3ee336a3db98d053977bf3ed3d89b9050843d8907034dc4c50
1e7e75f62a07f7b1bbcb463bf6330e44eff574bcdcb677aa0ffb76e2ddf4497bcf1a5253506b3737663701cda1027f15c6df47448f36a7b0b59d5ecd7bfb7dc1
$CDNENCFINISH
.ends LP5912_3P3_S2
*$
************************/////
.subckt d_d 1 2
$CDNENCSTART
eee8c5c7a2bc4b01f045f303678664e7916da0bae22e8cb0bba041dd67c69ce448ea70148a9ac1670c8926c1ac5057c8ccfcd77bf87ca9dc208e9f9356bf60f8
1580a2664af5c9b7c0b9da8b188a7b529fc30e97396144e68eafa26679fb5deab1bd0f39bfa025b4c4499ba5e5d111bca9b565fd4245e13aae8ce3995700380e
0697746efb67a3a33dcda16930d9c3470db7744b07a3f1ecd52b4f24dc4dd33abbd30d2e906fdfe06aa08fffaf95fe6d27acb00761d23596cf619f7ff2fb7ed7
f7a854a98d732f8b2a0abcce5298df490db7744b07a3f1ecd52b4f24dc4dd33abbd30d2e906fdfe06aa08fffaf95fe6d27acb00761d23596cf619f7ff2fb7ed7
017be230402273591fa9130b3c216f5e40bb8b5c0215a9c913b45034ddea25f5c2d55ad77cb9dc6a39ac2bfaea01ab6b4987c27190a6aacd8ff0a40a1bf92249
39c84b0c9f72e00767286f562e81c2a20db7744b07a3f1ecd52b4f24dc4dd33abbd30d2e906fdfe06aa08fffaf95fe6d27acb00761d23596cf619f7ff2fb7ed7
$CDNENCFINISH
.ends d_d
*$
.SUBCKT COMPHYS_BASIC_GEN INP INM HYS OUT PARAMS: VDD=1 VSS=0 VTHRESH=0.5	
$CDNENCSTART
eee8c5c7a2bc4b01f045f303678664e7916da0bae22e8cb0bba041dd67c69ce448ea70148a9ac1670c8926c1ac5057c8ccfcd77bf87ca9dc208e9f9356bf60f8
9132b7121104d4358be44c41ab888f41b6e3a1568843d8671fa9130b3c216f5e40bb8b5c0215a9c913b45034ddea25f5c2d55ad77cb9dc6a0a7713b0cb80f7c5
70d49a25931fcad5af5f0f227a33dfc56b574213c15e8d8904d73209bd6cb354e07469d76c73f504727902e71a3e75d8bb77e20fe987edd8335cea0ce214a430
d1579de13894cc53749d13634498f34b2814ec203481f38f6485690991963efc688dc2cfc32ec3a9609956094a2f05290a470a0f2f4eda347119c12127e7fb94
c985c90e830fff94cd3e984f262414e00bc2a76e983385220a8c9aa88363f34e42d592010626c1ddb04bacb1c96516ac37af81747cb799921737f0d8c3969f97
1fdb31c906bbcd7723f62ed8e8fb42169fc30e97396144e68eafa26679fb5deab1bd0f39bfa025b4c4499ba5e5d111bca9b565fd4245e13aae8ce3995700380e
13142c038a62aa158605de5fd7113a4cb3092113ae59ff75a12f0b18411f2012743be96dc93a8ddcb85c4b8bf84fd89625224be6afa1022e89f5da0aec595c25
$CDNENCFINISH
.ENDS COMPHYS_BASIC_GEN
*$
.SUBCKT BUF_DELAY_BASIC_GEN A  Y PARAMS: VDD=1 VSS=0 VTHRESH=0.5 DELAY = 10n 
$CDNENCSTART
eee8c5c7a2bc4b01f045f303678664e7916da0bae22e8cb0bba041dd67c69ce448ea70148a9ac1670c8926c1ac5057c8ccfcd77bf87ca9dc208e9f9356bf60f8
f305b7cfa0765161b7a8d0a5fa27600f87c337a6226f9c259ce2376dcef929e055e2d3dce1717d717ca80a2ba8175d7e00ad31203c1c3ec1a20611517937f84c
7e21bb79cbca9f8ce0c67063107b52eb1fa9130b3c216f5e40bb8b5c0215a9c913b45034ddea25f5c2d55ad77cb9dc6a39ac2bfaea01ab6b2fdc7cd6095e87b8
bd9831b9881f0b92004c220067cfdabfcd3e984f262414e00bc2a76e983385220a8c9aa88363f34e42d592010626c1ddb04bacb1c96516acba6e6e6b603a8c50
99cb3fa3ad4040ee39d350e60ca2338a43558a6d1f49bc891fa9130b3c216f5e40bb8b5c0215a9c913b45034ddea25f5c2d55ad77cb9dc6a0a7713b0cb80f7c5
f305b7cfa0765161c36180965553170d8da13727b91264449ce2376dcef929e07d4a1829490ab8db9b0e7c0027d2abb9e6efecb6122f9b38335cea0ce214a430
7e21bb79cbca9f8ce0c67063107b52eb1fa9130b3c216f5e40bb8b5c0215a9c913b45034ddea25f5c2d55ad77cb9dc6a39ac2bfaea01ab6b2fdc7cd6095e87b8
8d3568177ac8ace91f72e5a2e8c9f624b3092113ae59ff75a12f0b18411f2012743be96dc93a8ddcb85c4b8bf84fd89625224be6afa1022e89f5da0aec595c25
042d1e8ae349b80ff85ed0fb9a5e1e068dabdda61dd53300b188ec39c84eda3ee336a3db98d053977bf3ed3d89b90508515ecb598be096002f5629aedc8144f9
$CDNENCFINISH
.ENDS BUF_DELAY_BASIC_GEN
*$
.SUBCKT my_ETABLE1 IN+ IN- OUT+ OUT- 
$CDNENCSTART
eee8c5c7a2bc4b01f045f303678664e7916da0bae22e8cb0bba041dd67c69ce448ea70148a9ac1670c8926c1ac5057c8ccfcd77bf87ca9dc208e9f9356bf60f8
5a44c1b075599d03e820fef769aa747370fab9fd747b5260b7e8313b773d0986b12299293b59f968ba4ca51359758bc6cf8501565e3d8d58ae7a13ef8dfd473c
80652ce94a8b20831097f72bcea4139227fd453af46a4ff62c60b57745fdc7358dabdda61dd53300b188ec39c84eda3ee336a3db98d053973087bfba99383491
0a0d9a8b7618394ba54c1385876853e2a720b19d645c9f890347fe84f3a5c4eb9a4efbc887652441738c70ae04f9af332a06980d97a9c1a13e7120acbfa00cfb
f78d2901262f8756cc834cabcb12d16aa8a39c2cf81ece0af2ecb0ba739a1afab3092113ae59ff75a12f0b18411f2012743be96dc93a8ddc31e2b3929de250d9
4a7859c197bd09032fb43d0e50423719ecac2dc165bae8bf5b231397f08ee9938c2c7cf4e30f729e4afa358d0be6161c11cef55cedbf372307251971d9c0d53f
f265fb52252b21b306e386e7fb26fc031868113febf99221c81ca40c274a6ffcb3092113ae59ff75a12f0b18411f2012743be96dc93a8ddc31e2b3929de250d9
871a25d6584cd6e7c778e020c0aa42175350cf6647c2d8a0c3e97fcb511427aa115db4e77df0f038b253d2867a460b05573ca897d3db14ae1d381b9007924473
701b04f83cd4ccce980088b15f0ff7014fc0047eeb552c3c61e9e531949db361b3092113ae59ff75a12f0b18411f2012743be96dc93a8ddc31e2b3929de250d9
5e71a348b6b75ce03500cfcd8c85652c659e370fd3cf2322a181c282f6d2c0db8dabdda61dd53300b188ec39c84eda3ee336a3db98d053973087bfba99383491
$CDNENCFINISH
.ENDS my_ETABLE1
*$
.SUBCKT my_ETABLE2 IN+ IN- OUT+ OUT- 
$CDNENCSTART
eee8c5c7a2bc4b01f045f303678664e7916da0bae22e8cb0bba041dd67c69ce448ea70148a9ac1670c8926c1ac5057c8ccfcd77bf87ca9dc208e9f9356bf60f8
5a44c1b075599d03e820fef769aa747370fab9fd747b5260b7e8313b773d0986b12299293b59f968ba4ca51359758bc633a9374f1270af8de6835a02bb807de1
19a10049a7ac0f5f65ba0a758d09180cb3092113ae59ff75a12f0b18411f2012743be96dc93a8ddcb85c4b8bf84fd89625224be6afa1022e89f5da0aec595c25
77a435c892f1c5c7dc78f115ccff4c9df8ee830818df14f5f72079fb95cc7cf97aa2b9734e49fb28e151b2bda27fe2cdd85a7e5e8617f24711e61d1a58228057
22ed24bf094e4a30a1b2f7b2cad35cfd8591dad5d16359110bc2a76e983385220a8c9aa88363f34e42d592010626c1ddb04bacb1c96516acba6e6e6b603a8c50
bcbf2f832a2b344d2659cd61f60d9b6d6c10fbf7ded5d2eda559955870d5424daa5ada3928f764644f8237de834c293bb8e3d304aad906557d30e339949ed56d
89acdc58e7749e7149f25ec94581604fc5c504b7b964c8b90bc2a76e983385220a8c9aa88363f34e42d592010626c1ddb04bacb1c96516acba6e6e6b603a8c50
91a256e8ed22e6bb1faa892135c22f9967beecd773a4b91a80bef316546ee7e6fd6ea586ba8dcbee80bfba471323ca1472bdb80d295d55a856bfb72f3163247e
88d7aa6b0c37fa9505e7338f3264c3cd538f856fb084c97e0bc2a76e983385220a8c9aa88363f34e42d592010626c1ddb04bacb1c96516acba6e6e6b603a8c50
88ddc1749144df4ef70475d0784ed4b2e82fd12654f089508b1e5f36322037e64d82215b8cfac1f969c6a9705e7593079a12698f06e6ec4399b8390999d3c21b
b9b4a2d0fb1649e0d78fa93d71dd2c233a1ed27b466788b20bc2a76e983385220a8c9aa88363f34e42d592010626c1ddb04bacb1c96516acba6e6e6b603a8c50
$CDNENCFINISH
.ENDS my_ETABLE2
*$

